/*--------------------------------*- C++ -*----------------------------------*\
| =========                 |                                                 |
| \\      /  F ield         | OpenFOAM: The Open Source CFD Toolbox           |
|  \\    /   O peration     | Version:  4.0                                   |
|   \\  /    A nd           | Web:      www.OpenFOAM.org                      |
|    \\/     M anipulation  |                                                 |
\*---------------------------------------------------------------------------*/
FoamFile
{
	version	2.0;
	format	ascii;
	class	dictionary;
	location	"system";
	object	fvSolution;
}
// ************************************************************************* //

solvers
{

	p
	{
		solver	GAMG;
		tolerance	1e-17;
		relTol	0;
		smoother	GaussSeidel;
		nPreSweeps	2;
		nPostSweeps	2;
		cacheAgglomeration	on;
		agglomerator	faceAreaPair;
		nCellsInCoarsestLevel	10;
		mergeLevels	1;
	}

	U
	{
		solver	smoothSolver;
		tolerance	1e-17;
		relTol	0;
		smoother	GaussSeidel;
	}
}

SIMPLE
{
	nNonOrthogonalCorrectors	0;
	pRefPoint	(0 0 0);
	pRefValue	3447380;

	residualControl
	{
		p	1e-17;
		U	1e-17;
	}
}

relaxationFactors
{

	fields
	{
		p	0.3;
	}

	equations
	{
		U	0.7;
	}
}


// ************************************************************************* //
