/*--------------------------------*- C++ -*----------------------------------*\
| =========                 |                                                 |
| \\      /  F ield         | OpenFOAM: The Open Source CFD Toolbox           |
|  \\    /   O peration     | Version:  2.2.2                                 |
|   \\  /    A nd           | Web:      www.OpenFOAM.org                      |
|    \\/     M anipulation  |                                                 |
\*---------------------------------------------------------------------------*/
FoamFile
{
    version     2.0;
    format      ascii;
    class       dictionary;
    location    "system";
    object      testFoamFile;
}
// * * * * * * * * * * * * * * * * * * * * * * * * * * * * * * * * * * * * * //

application     simpleFoam;

startFrom       latestTime;

startTime       0;

//

divSchemes
{
    default         none;
    div(phi,U)      bounded Gauss upwind;
    div(phi,k)      bounded Gauss upwind;
    div(phi,epsilon) bounded Gauss upwind;
    div(phi,R)      bounded Gauss upwind;
    div(R)          Gauss linear;
    div(phi,nuTilda) bounded Gauss upwind;
    div((nuEff*dev(T(grad(U))))) Gauss linear;
    div((nuEff*dev2(T(grad(U))))) Gauss linear;
}

laplacianSchemes
{
    default         none;
    laplacian(nuEff,U) Gauss linear corrected;
    laplacian((1|A(U)),p) Gauss linear corrected;
    laplacian(DkEff,k) Gauss linear corrected;
    laplacian(DepsilonEff,epsilon) Gauss linear corrected;
    laplacian(DREff,R) Gauss linear corrected;
    laplacian(DnuTildaEff,nuTilda) Gauss linear corrected;
}

solvers
{
    p
    {
        solver                GAMG;
        tolerance             1e-17;
        relTol                0;
        smoother              GaussSeidel;
        nPreSweeps            2;
        nPostSweeps           2;
        cacheAgglomeration    on;
        agglomerator          faceAreaPair;
        nCellsInCoarsestLevel 10;
        mergeLevels           1;
    }

    U
    {
        solver          smoothSolver;
        tolerance       1e-17;
        relTol          0;
        smoother        GaussSeidel;
    }
}

SIMPLE
{
    nNonOrthogonalCorrectors 0;
    pRefPoint                 (0 0 0);
    pRefValue                3447380;

    residualControl
    {
        p               1e-17;
        U               1e-17;
    }
}

relaxationFactors
{
    fields
    {
        p               0.3;
    }
    equations
    {
        U               0.7;
    }
}

distributed     no;

roots           ( );

// ************************************************************************* //
